[Format]      =  4.0
[Frequency]   =  0
[Precision]   =  1e-008
[MinAngle]    =  30
[DoSmartMesh] =  1
[Depth]       =  20
[LengthUnits] =  millimeters
[ProblemType] =  planar
[Coordinates] =  cartesian
[ACSolver]    =  0
[PrevType]    =  0
[PrevSoln]    =  ""
[Comment]     =  "Add comments here."
[PointProps]   = 0
[BdryProps]   = 0
[BlockProps]  = 4
  <BeginBlock>
    <BlockName> = "N50"
    <Mu_x> = 1.05
    <Mu_y> = 1.05
    <H_c> = 987837
    <H_cAngle> = 0
    <J_re> = 0
    <J_im> = 0
    <Sigma> = 0.66700000000000004
    <d_lam> = 0
    <Phi_h> = 0
    <Phi_hx> = 0
    <Phi_hy> = 0
    <LamType> = 0
    <LamFill> = 1
    <NStrands> = 0
    <WireD> = 0
    <BHPoints> = 8
      0	0
      0.0717	11297
      0.14349999999999999	30636
      0.2152	67096
      0.28689999999999999	118309
      0.35859999999999997	172428
      0.4304	226773
      1.4346000000000001	987837
  <EndBlock>
  <BeginBlock>
    <BlockName> = "Pure Iron"
    <Mu_x> = 14872
    <Mu_y> = 14872
    <H_c> = 0
    <H_cAngle> = 0
    <J_re> = 0
    <J_im> = 0
    <Sigma> = 10.44
    <d_lam> = 0
    <Phi_h> = 0
    <Phi_hx> = 0
    <Phi_hy> = 0
    <LamType> = 0
    <LamFill> = 1
    <NStrands> = 0
    <WireD> = 0
    <BHPoints> = 21
      0	0
      0.22706499999999999	13.898400000000001
      0.45412999999999998	27.796700000000001
      0.68119499999999999	42.397399999999998
      0.90825999999999996	61.415700000000001
      1.13533	82.382400000000004
      1.36239	144.66900000000001
      1.58935	897.75999999999999
      1.81236	4581.7399999999998
      2.01004	17736.200000000001
      2.1331600000000002	41339.300000000003
      2.1999900000000001	68321.800000000003
      2.2547899999999998	95685.5
      2.2999299999999998	123355
      2.3425099999999999	151083
      2.3787600000000002	178954
      2.4150100000000001	206825
      2.45126	234696
      2.4874999999999998	262568
      2.5237500000000002	290439
      2.5600000000000001	318310
  <EndBlock>
  <BeginBlock>
    <BlockName> = "Air"
    <Mu_x> = 1
    <Mu_y> = 1
    <H_c> = 0
    <H_cAngle> = 0
    <J_re> = 0
    <J_im> = 0
    <Sigma> = 0
    <d_lam> = 0
    <Phi_h> = 0
    <Phi_hx> = 0
    <Phi_hy> = 0
    <LamType> = 0
    <LamFill> = 1
    <NStrands> = 0
    <WireD> = 0
    <BHPoints> = 0
  <EndBlock>
  <BeginBlock>
    <BlockName> = "0.4mm"
    <Mu_x> = 1
    <Mu_y> = 1
    <H_c> = 0
    <H_cAngle> = 0
    <J_re> = 0
    <J_im> = 0
    <Sigma> = 58
    <d_lam> = 0
    <Phi_h> = 0
    <Phi_hx> = 0
    <Phi_hy> = 0
    <LamType> = 3
    <LamFill> = 1
    <NStrands> = 1
    <WireD> = 0.40000000000000002
    <BHPoints> = 0
  <EndBlock>
[CircuitProps]  = 6
  <BeginCircuit>
    <CircuitName> = "Circuit1"
    <TotalAmps_re> = 10
    <TotalAmps_im> = 0
    <CircuitType> = 1
  <EndCircuit>
  <BeginCircuit>
    <CircuitName> = "Circuit2"
    <TotalAmps_re> = 0
    <TotalAmps_im> = 0
    <CircuitType> = 1
  <EndCircuit>
  <BeginCircuit>
    <CircuitName> = "Circuit3"
    <TotalAmps_re> = 0
    <TotalAmps_im> = 0
    <CircuitType> = 1
  <EndCircuit>
  <BeginCircuit>
    <CircuitName> = "Circuit1-"
    <TotalAmps_re> = -10
    <TotalAmps_im> = 0
    <CircuitType> = 1
  <EndCircuit>
  <BeginCircuit>
    <CircuitName> = "Circuit2-"
    <TotalAmps_re> = 0
    <TotalAmps_im> = 0
    <CircuitType> = 1
  <EndCircuit>
  <BeginCircuit>
    <CircuitName> = "Circuit3-"
    <TotalAmps_re> = 0
    <TotalAmps_im> = 0
    <CircuitType> = 1
  <EndCircuit>
[NumPoints] = 834
36.910973977937786	29.8399061660723	0	0
29.839906166072318	36.910973977937772	0	0
38.325187540310885	31.254119728445396	0	0
31.254119728445417	38.325187540310871	0	0
4.9999999999999982	47.200000000000003	0	0
-4.9999999999999982	47.200000000000003	0	0
4.9999999999999982	49.20000000000001	0	0
-4.9999999999999982	49.20000000000001	0	0
-7.386629797393641	46.885794226356637	0	0
-17.045888060284319	44.297603775331432	0	0
-7.9042678875986825	48.817645878934776	0	0
-17.563526150489363	46.229455427909571	0	0
17.045888060284359	44.297603775331417	0	0
7.3866297973936801	46.88579422635663	0	0
17.563526150489402	46.229455427909549	0	0
7.9042678875987225	48.817645878934769	0	0
27.930127018922217	38.376399058625495	0	0
19.269872981077835	43.376399058625495	0	0
28.930127018922217	40.108449866194377	0	0
20.269872981077839	45.108449866194377	0	0
-19.269872981077807	43.376399058625516	0	0
-27.930127018922192	38.376399058625516	0	0
-20.269872981077807	45.108449866194391	0	0
-28.930127018922192	40.108449866194391	0	0
29.839906166072293	-36.9109739779378	0	0
36.910973977937765	-29.839906166072332	0	0
31.254119728445385	-38.3251875403109	0	0
38.325187540310857	-31.254119728445424	0	0
19.269872981077796	-43.376399058625516	0	0
27.930127018922182	-38.376399058625516	0	0
20.2698729810778	-45.108449866194391	0	0
28.930127018922178	-40.108449866194398	0	0
7.3866297973936206	-46.88579422635663	0	0
17.045888060284298	-44.297603775331432	0	0
7.9042678875986603	-48.817645878934769	0	0
17.563526150489341	-46.229455427909578	0	0
-5.0000000000000036	-47.200000000000003	0	0
4.999999999999992	-47.200000000000003	0	0
-5.0000000000000036	-49.20000000000001	0	0
4.999999999999992	-49.20000000000001	0	0
-36.910973977937786	-29.839906166072304	0	0
-29.839906166072314	-36.910973977937779	0	0
-38.325187540310878	-31.254119728445403	0	0
-31.25411972844541	-38.325187540310878	0	0
-27.930127018922207	-38.376399058625509	0	0
-19.269872981077828	-43.376399058625509	0	0
-28.93012701892221	-40.108449866194384	0	0
-20.269872981077832	-45.108449866194384	0	0
-43.376399058625516	-19.269872981077803	0	0
-38.376399058625516	-27.930127018922185	0	0
-45.108449866194391	-20.269872981077803	0	0
-40.108449866194391	-28.930127018922185	0	0
-46.885794226356637	-7.3866297973936348	0	0
-44.297603775331432	-17.045888060284312	0	0
-48.817645878934776	-7.9042678875986763	0	0
-46.229455427909571	-17.563526150489356	0	0
-17.045888060284334	-44.297603775331424	0	0
-7.3866297973936561	-46.88579422635663	0	0
-17.563526150489373	-46.229455427909556	0	0
-7.9042678875986976	-48.817645878934769	0	0
-47.200000000000003	5	0	0
-47.200000000000003	-4.9999999999999947	0	0
-49.20000000000001	5	0	0
-49.20000000000001	-4.9999999999999956	0	0
-44.297603775331424	17.04588806028433	0	0
-46.88579422635663	7.3866297973936508	0	0
-46.229455427909556	17.56352615048937	0	0
-48.817645878934769	7.9042678875986923	0	0
-38.376399058625509	27.9301270189222	0	0
-43.376399058625509	19.269872981077818	0	0
-40.108449866194384	28.9301270189222	0	0
-45.108449866194384	20.26987298107781	0	0
-29.839906166072314	36.910973977937786	0	0
-36.910973977937786	29.839906166072314	0	0
-31.25411972844541	38.325187540310878	0	0
-38.325187540310878	31.254119728445406	0	0
38.376399058625509	-27.930127018922217	0	0
43.376399058625509	-19.269872981077832	0	0
40.108449866194384	-28.930127018922217	0	0
45.108449866194384	-20.269872981077832	0	0
44.297603775331417	-17.045888060284355	0	0
46.88579422635663	-7.3866297973936774	0	0
46.229455427909549	-17.563526150489398	0	0
48.817645878934776	-7.9042678875987207	0	0
47.200000000000003	-5.0000000000000071	0	0
47.200000000000003	4.9999999999999893	0	0
49.20000000000001	-5.0000000000000071	0	0
49.20000000000001	4.9999999999999893	0	0
46.88579422635663	7.3866297973936206	0	0
44.297603775331432	17.045888060284298	0	0
48.817645878934769	7.9042678875986603	0	0
46.229455427909578	17.563526150489341	0	0
43.376399058625523	19.269872981077775	0	0
38.376399058625537	27.930127018922164	0	0
45.108449866194398	20.269872981077775	0	0
40.10844986619442	28.930127018922164	0	0
-7.1623927399330301	-45.945077323244931	0	1
-6.9018672380937831	-44.467563781117221	0	1
-0.9246990495444305	-44.990498237603134	0	1
-0.92469904954444515	-46.490804807701196	0	1
-1.821274277827168	-44.912058069129948	0	1
-2.1884503814854424	-36.487815568046351	0	1
-2.8212171287053138	-43.720372584206487	0	1
2.8212171287043626	-43.720372584206963	0	1
2.1884503814854428	-36.487815568046486	0	1
0.92469904954328985	-44.990498237603163	0	1
1.8212742778258346	-44.912058069130296	0	1
0.92469904954328985	-46.490804807701224	0	1
6.9018672380926507	-44.467563781117377	0	1
7.162392739931887	-45.945077323245116	0	1
6.0052920098098621	-44.546003949590016	0	1
4.180839777668913	-36.313504082551027	0	1
4.8136065248868469	-43.546061098711341	0	1
10.370319527445655	-42.56626267230714	0	1
8.4912455832077125	-35.553463241232301	0	1
8.7231688244802843	-44.146419171430146	0	1
9.5925020681404245	-43.913482030837898	0	1
8.9836943263195312	-45.623932713557856	0	1
14.518723782213621	-42.593504900815368	0	1
15.03185885035102	-44.00333191365312	0	1
13.649390538553206	-42.826442041407425	0	1
10.423097235785811	-35.035825151027112	0	1
12.302171180022752	-42.048624582102008	0	1
17.604325014980397	-40.118798408677513	0	1
14.536038584661808	-33.538836924753724	0	1
16.256589528821852	-41.960973497899218	0	1
17.072266537154832	-41.580617062332621	0	1
16.769724596959229	-43.370800510736949	0	1
21.694436251040763	-39.425263927455546	0	1
22.444589536089801	-40.724567530625158	0	1
20.878759242707485	-39.805620363022015	0	1
16.348654158735027	-32.693600401272185	0	1
19.416940589052647	-39.273561885196195	0	1
24.30343199515324	-36.452344756491748	0	1
20.139161409311392	-30.505150019786878	0	1
23.296061986561394	-38.500564877911721	0	1
24.033298826421472	-37.984346085195803	0	1
24.046215271610411	-39.799868481081319	0	1
28.210974252294466	-35.059106259806136	0	1
29.175352726284803	-36.208407770804641	0	1
27.473737412434055	-35.575325052521961	0	1
21.777465497889285	-29.357997147084657	0	1
25.941736083730202	-35.305191883789902	0	1
30.264091492283352	-31.678305054656459	0	1
25.130366005446437	-26.544579567819536	0	1
29.627695389215436	-33.870336076334752	0	1
30.264091492283331	-33.233939973266885	0	1
30.59207386320578	-35.01963758733325	0	1
33.870336076333977	-29.627695389216289	0	1
35.019637587332483	-30.592073863206632	0	1
33.233939973265748	-30.264091492284116	0	1
26.544579567819419	-25.130366005446337	0	1
31.678305054655475	-30.264091492283772	0	1
35.305191883789654	-25.941736083731239	0	1
29.357997147084781	-21.777465497889352	0	1
35.059106259805425	-28.210974252295362	0	1
35.575325052521372	-27.473737412435302	0	1
36.208407770803923	-29.175352726285695	0	1
38.50056487791111	-23.296061986562371	0	1
39.799868481080729	-24.046215271611398	0	1
37.984346085194829	-24.033298826422467	0	1
30.505150019786743	-20.139161409311317	0	1
36.452344756490852	-24.30343199515384	0	1
39.273561885196116	-19.416940589053713	0	1
32.693600401272306	-16.348654158735108	0	1
39.425263927454999	-21.694436251041779	0	1
39.805620363021639	-20.878759242708824	0	1
40.724567530624611	-22.444589536090799	0	1
41.960973497898785	-16.256589528822921	0	1
43.370800510736537	-16.769724596960298	0	1
41.580617062331825	-17.072266537155969	0	1
33.538836924753582	-14.536038584661759	0	1
40.118798408676739	-17.604325014981143	0	1
42.048624582102114	-12.302171180023816	0	1
35.035825151027254	-10.42309723578586	0	1
42.59350490081502	-14.518723782214717	0	1
42.826442041407311	-13.649390538554584	0	1
44.003331913652765	-15.031858850352094	0	1
44.146419171429926	-8.7231688244814052	0	1
45.623932713557629	-8.9836943263206663	0	1
43.913482030837329	-9.5925020681416804	0	1
35.553463241232144	-8.4912455832076859	0	1
42.566262672306536	-10.370319527446521	0	1
43.546061098711668	-4.8136065248878728	0	1
36.313504082551177	-4.1808397776689414	0	1
44.467563781117221	-6.901867238093784	0	1
44.546003949590144	-6.0052920098112406	0	1
45.945077323244931	-7.1623927399330301	0	1
44.990498237603134	-0.92469904954443316	0	1
46.490804807701181	-0.92469904954443738	0	1
44.912058069129948	-1.8212742778271707	0	1
36.487815568046351	-2.1884503814854441	0	1
43.720372584206487	-2.8212171287053156	0	1
43.720372584206963	2.821217128704359	0	1
36.487815568046486	2.1884503814854401	0	1
44.990498237603163	0.92469904954328674	0	1
44.912058069130296	1.8212742778258328	0	1
46.490804807701224	0.92469904954328719	0	1
44.467563781117377	6.9018672380926507	0	1
45.945077323245116	7.1623927399318834	0	1
44.546003949590016	6.0052920098098603	0	1
36.313504082551027	4.1808397776689112	0	1
43.546061098711341	4.8136065248868434	0	1
42.566262672307147	10.370319527445652	0	1
35.553463241232301	8.4912455832077107	0	1
44.146419171430146	8.7231688244802825	0	1
43.913482030837898	9.5925020681404209	0	1
45.623932713557856	8.9836943263195295	0	1
42.593504900815368	14.518723782213621	0	1
44.003331913653128	15.031858850350998	0	1
42.826442041407425	13.649390538553206	0	1
35.035825151027112	10.423097235785811	0	1
42.048624582102008	12.302171180022752	0	1
40.118798408677513	17.604325014980397	0	1
33.538836924753724	14.536038584661808	0	1
41.960973497899218	16.256589528821852	0	1
41.580617062332621	17.072266537154832	0	1
43.370800510736949	16.769724596959229	0	1
39.425263927455546	21.694436251040759	0	1
40.724567530625166	22.444589536089779	0	1
39.805620363022015	20.878759242707478	0	1
32.693600401272185	16.348654158735023	0	1
39.273561885196187	19.416940589052636	0	1
36.452344756491748	24.303431995153229	0	1
30.505150019786882	20.139161409311381	0	1
38.500564877911728	23.296061986561387	0	1
37.984346085195817	24.033298826421465	0	1
39.79986848108134	24.046215271610411	0	1
35.059106259806121	28.210974252294466	0	1
36.208407770804655	29.175352726284785	0	1
35.575325052521954	27.473737412434055	0	1
29.357997147084657	21.777465497889285	0	1
35.305191883789902	25.941736083730206	0	1
31.678305054656452	30.264091492283349	0	1
26.544579567819532	25.130366005446437	0	1
33.870336076334745	29.62769538921544	0	1
33.233939973266885	30.264091492283331	0	1
35.019637587333229	30.592073863205766	0	1
29.627695389216292	33.87033607633397	0	1
30.59207386320664	35.019637587332475	0	1
30.264091492284123	33.233939973265748	0	1
25.130366005446344	26.544579567819412	0	1
30.264091492283779	31.678305054655468	0	1
25.941736083731254	35.305191883789654	0	1
21.77746549788937	29.357997147084774	0	1
28.210974252295369	35.059106259805418	0	1
27.473737412435309	35.575325052521364	0	1
29.175352726285695	36.208407770803909	0	1
23.296061986562364	38.50056487791111	0	1
24.04621527161143	39.799868481080722	0	1
24.033298826422453	37.984346085194844	0	1
20.139161409311306	30.50515001978675	0	1
24.303431995153829	36.452344756490874	0	1
19.416940589053709	39.273561885196123	0	1
16.348654158735098	32.693600401272313	0	1
21.694436251041765	39.425263927454999	0	1
20.878759242708814	39.805620363021639	0	1
22.444589536090788	40.724567530624604	0	1
16.256589528822925	41.960973497898785	0	1
16.769724596960302	43.370800510736537	0	1
17.072266537155969	41.580617062331825	0	1
14.53603858466176	33.538836924753575	0	1
17.604325014981143	40.118798408676739	0	1
12.302171180023818	42.048624582102114	0	1
10.423097235785864	35.035825151027261	0	1
14.518723782214717	42.59350490081502	0	1
13.649390538554586	42.826442041407311	0	1
15.031858850352094	44.003331913652765	0	1
8.7231688244814158	44.146419171429926	0	1
8.9836943263206734	45.623932713557622	0	1
9.592502068141691	43.913482030837329	0	1
8.4912455832076876	35.553463241232144	0	1
10.370319527446528	42.566262672306536	0	1
4.8136065248878825	43.546061098711654	0	1
4.1808397776689503	36.313504082551177	0	1
6.9018672380937964	44.467563781117228	0	1
6.005292009811253	44.546003949590144	0	1
7.1623927399330434	45.945077323244909	0	1
0.92469904954443605	44.990498237603134	0	1
0.92469904954446225	46.490804807701174	0	1
1.8212742778271735	44.912058069129948	0	1
2.1884503814854468	36.487815568046351	0	1
2.8212171287053192	43.720372584206487	0	1
-2.8212171287043564	43.720372584206963	0	1
-2.1884503814854366	36.487815568046486	0	1
-0.92469904954328408	44.990498237603163	0	1
-1.8212742778258293	44.912058069130296	0	1
-0.92469904954328408	46.490804807701224	0	1
-6.9018672380926365	44.467563781117377	0	1
-7.1623927399318799	45.945077323245116	0	1
-6.0052920098098479	44.546003949590016	0	1
-4.1808397776689006	36.313504082551034	0	1
-4.8136065248868318	43.546061098711348	0	1
-10.370319527445645	42.566262672307161	0	1
-8.4912455832077054	35.553463241232294	0	1
-8.7231688244802683	44.146419171430153	0	1
-9.5925020681404138	43.913482030837905	0	1
-8.9836943263195188	45.623932713557863	0	1
-14.518723782213621	42.593504900815368	0	1
-15.031858850350975	44.003331913653149	0	1
-13.649390538553206	42.826442041407425	0	1
-10.423097235785811	35.035825151027112	0	1
-12.302171180022752	42.048624582102001	0	1
-17.60432501498039	40.118798408677506	0	1
-14.536038584661807	33.538836924753717	0	1
-16.256589528821848	41.960973497899218	0	1
-17.072266537154828	41.580617062332621	0	1
-16.769724596959229	43.370800510736949	0	1
-21.694436251040756	39.425263927455546	0	1
-22.444589536089772	40.724567530625166	0	1
-20.878759242707474	39.805620363022015	0	1
-16.348654158735027	32.693600401272192	0	1
-19.41694058905264	39.273561885196187	0	1
-24.303431995153229	36.452344756491748	0	1
-20.139161409311384	30.505150019786878	0	1
-23.296061986561384	38.500564877911728	0	1
-24.033298826421465	37.98434608519581	0	1
-24.046215271610404	39.799868481081326	0	1
-28.210974252294466	35.059106259806136	0	1
-29.175352726284775	36.208407770804655	0	1
-27.473737412434055	35.575325052521961	0	1
-21.777465497889285	29.357997147084657	0	1
-25.941736083730202	35.305191883789902	0	1
-30.264091492283352	31.678305054656459	0	1
-25.130366005446437	26.544579567819536	0	1
-29.627695389215436	33.870336076334752	0	1
-30.264091492283331	33.233939973266885	0	1
-30.59207386320578	35.01963758733325	0	1
-33.87033607633397	29.627695389216292	0	1
-35.019637587332475	30.59207386320664	0	1
-33.233939973265748	30.264091492284123	0	1
-26.544579567819412	25.130366005446344	0	1
-31.678305054655468	30.264091492283779	0	1
-35.305191883789654	25.941736083731254	0	1
-29.357997147084774	21.77746549788937	0	1
-35.059106259805418	28.210974252295369	0	1
-35.575325052521364	27.473737412435309	0	1
-36.208407770803909	29.175352726285695	0	1
-38.500564877911096	23.296061986562385	0	1
-39.799868481080715	24.046215271611409	0	1
-37.984346085194822	24.033298826422467	0	1
-30.505150019786736	20.139161409311328	0	1
-36.452344756490852	24.303431995153851	0	1
-39.273561885196116	19.416940589053731	0	1
-32.693600401272299	16.348654158735123	0	1
-39.425263927454992	21.694436251041793	0	1
-39.805620363021632	20.878759242708835	0	1
-40.724567530624597	22.44458953609081	0	1
-41.96097349789877	16.256589528822943	0	1
-43.370800510736515	16.76972459696033	0	1
-41.580617062331811	17.072266537155986	0	1
-33.538836924753554	14.536038584661771	0	1
-40.118798408676739	17.604325014981164	0	1
-42.048624582102121	12.302171180023842	0	1
-35.035825151027247	10.423097235785878	0	1
-42.593504900815013	14.518723782214737	0	1
-42.826442041407297	13.649390538554609	0	1
-44.003331913652751	15.031858850352116	0	1
-44.146419171429926	8.7231688244814016	0	1
-45.623932713557629	8.9836943263206557	0	1
-43.913482030837329	9.5925020681416768	0	1
-35.553463241232144	8.4912455832076841	0	1
-42.566262672306543	10.370319527446519	0	1
-43.546061098711668	4.8136065248878683	0	1
-36.313504082551184	4.180839777668929	0	1
-44.467563781117221	6.9018672380937796	0	1
-44.546003949590137	6.005292009811237	0	1
-45.945077323244931	7.1623927399330265	0	1
-44.990498237603134	0.92469904954443871	0	1
-46.490804807701196	0.92469904954444182	0	1
-44.912058069129948	1.8212742778271762	0	1
-36.487815568046351	2.1884503814854486	0	1
-43.720372584206487	2.8212171287053209	0	1
-43.720372584206963	-2.8212171287043537	0	1
-36.487815568046486	-2.1884503814854348	0	1
-44.990498237603163	-0.92469904954328141	0	1
-44.912058069130296	-1.8212742778258275	0	1
-46.490804807701224	-0.92469904954328141	0	1
-44.467563781117377	-6.9018672380926329	0	1
-45.945077323245116	-7.1623927399318799	0	1
-44.546003949590016	-6.0052920098098461	0	1
-36.313504082551034	-4.180839777668897	0	1
-43.546061098711348	-4.8136065248868301	0	1
-42.566262672307161	-10.370319527445639	0	1
-35.553463241232301	-8.4912455832077036	0	1
-44.146419171430153	-8.7231688244802683	0	1
-43.913482030837905	-9.5925020681404103	0	1
-45.623932713557863	-8.9836943263195153	0	1
-42.593504900815383	-14.518723782213598	0	1
-44.003331913653149	-15.031858850350975	0	1
-42.826442041407432	-13.649390538553179	0	1
-35.035825151027105	-10.423097235785782	0	1
-42.048624582102015	-12.302171180022729	0	1
-40.118798408677527	-17.604325014980375	0	1
-33.538836924753731	-14.536038584661783	0	1
-41.960973497899225	-16.256589528821831	0	1
-41.580617062332628	-17.072266537154803	0	1
-43.37080051073697	-16.769724596959207	0	1
-39.425263927455539	-21.69443625104077	0	1
-40.724567530625173	-22.444589536089801	0	1
-39.805620363021994	-20.878759242707503	0	1
-32.693600401272185	-16.348654158735037	0	1
-39.273561885196187	-19.416940589052658	0	1
-36.452344756491748	-24.30343199515325	0	1
-30.505150019786878	-20.139161409311399	0	1
-38.500564877911721	-23.296061986561401	0	1
-37.984346085195803	-24.033298826421483	0	1
-39.799868481081326	-24.046215271610425	0	1
-35.059106259806136	-28.210974252294463	0	1
-36.208407770804655	-29.175352726284796	0	1
-35.575325052521961	-27.473737412434044	0	1
-29.357997147084667	-21.777465497889281	0	1
-35.305191883789902	-25.941736083730202	0	1
-31.678305054656455	-30.264091492283342	0	1
-26.544579567819536	-25.13036600544643	0	1
-33.870336076334752	-29.627695389215432	0	1
-33.233939973266885	-30.26409149228332	0	1
-35.019637587333236	-30.592073863205766	0	1
-29.627695389216299	-33.87033607633397	0	1
-30.59207386320664	-35.019637587332461	0	1
-30.26409149228413	-33.233939973265748	0	1
-25.130366005446344	-26.544579567819415	0	1
-30.264091492283786	-31.678305054655475	0	1
-25.941736083731257	-35.305191883789647	0	1
-21.77746549788937	-29.35799714708477	0	1
-28.210974252295376	-35.059106259805411	0	1
-27.473737412435312	-35.575325052521357	0	1
-29.175352726285709	-36.208407770803916	0	1
-23.296061986562385	-38.500564877911096	0	1
-24.04621527161143	-39.799868481080722	0	1
-24.03329882642247	-37.984346085194815	0	1
-20.139161409311328	-30.505150019786736	0	1
-24.303431995153851	-36.452344756490845	0	1
-19.416940589053727	-39.273561885196109	0	1
-16.348654158735112	-32.693600401272299	0	1
-21.694436251041793	-39.425263927454985	0	1
-20.878759242708842	-39.805620363021625	0	1
-22.44458953609081	-40.724567530624597	0	1
-16.256589528822946	-41.96097349789877	0	1
-16.76972459696033	-43.370800510736515	0	1
-17.072266537155986	-41.580617062331811	0	1
-14.536038584661778	-33.538836924753554	0	1
-17.604325014981164	-40.118798408676739	0	1
-12.302171180023844	-42.048624582102093	0	1
-10.423097235785885	-35.03582515102724	0	1
-14.518723782214744	-42.593504900815006	0	1
-13.649390538554615	-42.82644204140729	0	1
-15.031858850352116	-44.003331913652751	0	1
-8.7231688244814052	-44.146419171429926	0	1
-8.9836943263206575	-45.623932713557629	0	1
-9.5925020681416804	-43.913482030837329	0	1
-8.4912455832076859	-35.553463241232144	0	1
-10.370319527446517	-42.566262672306536	0	1
-4.8136065248878701	-43.546061098711668	0	1
-4.1808397776689326	-36.313504082551184	0	1
-6.0052920098112388	-44.546003949590144	0	1
2.0888309116762733	-36.49653114232126	0	0
2.7215976588951807	-43.72908815848173	0	0
0.09644151549278647	-36.670842627816576	0	0
0.7292082627116947	-43.903399643977039	0	0
6.9056153908795483	-43.363034038941557	0	0
4.9132259946960311	-43.537345524436589	0	0
6.2728486436616482	-36.130477022781228	0	0
4.2804592474780936	-36.304788508276282	0	0
12.451541470992961	-34.492305156312064	0	0
14.330615415229882	-41.505104587386981	0	0
10.519689818414717	-35.009943246516862	0	0
12.398763762651669	-42.022742677591751	0	0
6.4628013480006796	-36.096983235947576	0	0
8.3946530005788116	-35.579345145742536	0	0
8.3418752922386101	-43.109782667022436	0	0
10.273726944816744	-42.592144576817404	0	0
18.251900511512158	-31.806102051616953	0	0
21.32018694182975	-38.386063535540977	0	0
16.43928493743871	-32.651338575098123	0	0
19.507571367756327	-39.231300059022118	0	0
12.632792231884851	-34.426335274409183	0	0
14.445407805958141	-33.581098750927787	0	0
15.701078662203427	-41.006296758332979	0	0
17.513694236276724	-40.16106023485159	0	0
23.497684790896358	-28.153486630747668	0	0
27.661955376737275	-34.10068136745295	0	0
21.859380702318187	-29.30063950344957	0	0
26.023651288159119	-35.247834240154809	0	0
18.418942116304514	-31.709660536124073	0	0
20.057246204882489	-30.562507663421975	0	0
22.583212702146366	-37.656855272828949	0	0
24.221516790724344	-36.509702400126869	0	0
28.0295038083114	-23.645441764954761	0	0
33.16322929514746	-28.779167251792227	0	0
26.615290245938091	-25.059655327327693	0	0
31.749015732774154	-30.193380814165131	0	0
23.64544176495469	-28.029503808311279	0	0
25.059655327327786	-26.615290245938187	0	0
28.779167251791591	-33.163229295148199	0	0
30.193380814164698	-31.749015732775121	0	0
31.709660536124197	-18.418942116304557	0	0
37.656855272828309	-22.583212702147119	0	0
30.562507663421865	-20.057246204882411	0	0
36.509702400125988	-24.221516790724937	0	0
28.153486630747583	-23.497684790896251	0	0
29.300639503449677	-21.859380702318262	0	0
34.100681367452445	-27.661955376738128	0	0
35.247834240154546	-26.023651288160146	0	0
34.426335274409318	-12.632792231884871	0	0
41.006296758332482	-15.701078662204287	0	0
33.581098750927659	-14.445407805958094	0	0
40.161060234850837	-17.51369423627747	0	0
31.80610205161685	-18.251900511512073	0	0
32.651338575098244	-16.439284937438774	0	0
38.386063535540636	-21.320186941830684	0	0
39.23130005902204	-19.507571367757386	0	0
36.096983235947711	-6.4628013480006752	0	0
43.109782667022102	-8.3418752922395392	0	0
35.579345145742408	-8.3946530005787849	0	0
42.5921445768168	-10.273726944817605	0	0
34.492305156311957	-12.451541470992888	0	0
35.00994324651699	-10.519689818414761	0	0
41.505104587386803	-14.330615415230852	0	0
42.022742677591864	-12.398763762652727	0	0
36.670842627816718	-0.096441515492756494	0	0
43.903399643976861	-0.72920826271266637	0	0
36.496531142321118	-2.0888309116762698	0	0
43.729088158481268	-2.7215976588961386	0	0
36.130477022781101	-6.2728486436615958	0	0
36.30478850827641	-4.2804592474781131	0	0
43.363034038941549	-6.9056153908805342	0	0
43.537345524436873	-4.9132259946970542	0	0
36.130477022781228	6.2728486436616464	0	0
43.363034038941557	6.9056153908795457	0	0
36.304788508276289	4.2804592474781025	0	0
43.537345524436603	4.9132259946960417	0	0
36.670842627816576	0.09644151549278418	0	0
36.496531142321274	2.0888309116762818	0	0
43.903399643977039	0.72920826271169192	0	0
43.729088158481737	2.7215976588951909	0	0
34.492305156312064	12.451541470992961	0	0
41.505104587386981	14.330615415229882	0	0
35.009943246516869	10.519689818414717	0	0
42.022742677591758	12.398763762651669	0	0
36.096983235947576	6.4628013480006787	0	0
35.579345145742543	8.3946530005788098	0	0
43.109782667022436	8.3418752922386084	0	0
42.592144576817418	10.27372694481674	0	0
31.806102051616953	18.251900511512158	0	0
38.386063535540977	21.32018694182975	0	0
32.65133857509813	16.43928493743871	0	0
39.231300059022132	19.507571367756327	0	0
34.426335274409176	12.632792231884851	0	0
33.581098750927787	14.445407805958144	0	0
41.006296758332979	15.701078662203427	0	0
40.161060234851604	17.513694236276724	0	0
28.153486630747672	23.497684790896347	0	0
34.10068136745295	27.661955376737271	0	0
29.300639503449574	21.859380702318184	0	0
35.247834240154809	26.023651288159115	0	0
31.709660536124069	18.418942116304507	0	0
30.562507663421982	20.057246204882485	0	0
37.656855272828949	22.583212702146351	0	0
36.509702400126869	24.221516790724337	0	0
23.645441764954761	28.029503808311404	0	0
28.779167251792227	33.16322929514746	0	0
25.05965532732769	26.615290245938084	0	0
30.193380814165124	31.749015732774151	0	0
28.029503808311279	23.645441764954683	0	0
26.615290245938183	25.059655327327782	0	0
33.163229295148199	28.779167251791591	0	0
31.749015732775113	30.193380814164694	0	0
18.41894211630456	31.709660536124197	0	0
22.583212702147122	37.656855272828309	0	0
20.057246204882425	30.562507663421851	0	0
24.221516790724948	36.509702400125974	0	0
23.497684790896255	28.153486630747583	0	0
21.859380702318273	29.300639503449663	0	0
27.661955376738131	34.100681367452438	0	0
26.023651288160153	35.247834240154532	0	0
12.632792231884862	34.426335274409318	0	0
15.70107866220428	41.006296758332496	0	0
14.445407805958087	33.581098750927666	0	0
17.513694236277459	40.161060234850837	0	0
18.251900511512066	31.806102051616854	0	0
16.439284937438767	32.651338575098251	0	0
21.320186941830674	38.386063535540643	0	0
19.507571367757379	39.231300059022054	0	0
6.4628013480006778	36.096983235947711	0	0
8.3418752922395409	43.10978266702211	0	0
8.3946530005787814	35.579345145742401	0	0
10.273726944817604	42.592144576816793	0	0
12.451541470992893	34.492305156311957	0	0
10.51968981841476	35.00994324651699	0	0
14.330615415230854	41.505104587386803	0	0
12.398763762652724	42.022742677591857	0	0
0.096441515492766763	36.670842627816711	0	0
0.72920826271267836	43.903399643976869	0	0
2.088830911676276	36.496531142321132	0	0
2.7215976588961466	43.729088158481275	0	0
6.2728486436616047	36.130477022781101	0	0
4.2804592474781202	36.304788508276417	0	0
6.9056153908805467	43.363034038941549	0	0
4.9132259946970622	43.537345524436887	0	0
-6.2728486436616437	36.130477022781228	0	0
-6.9056153908795439	43.363034038941557	0	0
-4.2804592474780891	36.304788508276282	0	0
-4.9132259946960257	43.537345524436589	0	0
-0.09644151549278196	36.670842627816576	0	0
-2.0888309116762689	36.49653114232126	0	0
-0.72920826271168937	43.903399643977039	0	0
-2.7215976588951749	43.72908815848173	0	0
-12.451541470992948	34.492305156312078	0	0
-14.330615415229868	41.505104587386995	0	0
-10.519689818414708	35.009943246516869	0	0
-12.398763762651654	42.022742677591758	0	0
-6.462801348000669	36.096983235947576	0	0
-8.3946530005787992	35.579345145742543	0	0
-8.3418752922385977	43.109782667022436	0	0
-10.27372694481673	42.592144576817418	0	0
-18.251900511512158	31.80610205161695	0	0
-21.320186941829746	38.386063535540977	0	0
-16.439284937438707	32.651338575098116	0	0
-19.507571367756324	39.231300059022111	0	0
-12.632792231884849	34.426335274409183	0	0
-14.445407805958141	33.581098750927779	0	0